2bus-13bus-na/Volt_Dump_NR_2.csv
# Volt_Dump_NR_2.csv run at 2013-08-28 00:00:00 PST on 799 powerflow objects (not all are nodes)
node_name,voltA_real,voltA_imag,voltB_real,voltB_imag,voltC_real,voltC_imag
Node650,138000.000000,0.000000,-69000.000000,-119497.000000,-69000.000000,119497.000000
n3,0.000000,0.000000,0.000000,0.000000,-1205.813608,2124.963149
n8,2424.324872,-33.096737,-1238.069029,-2109.696382,-1201.646672,2118.702155
n13,2412.346903,-44.141962,-1239.756351,-2104.362659,-1194.007083,2113.635626
n14,2483.152071,-34.946938,0.000000,0.000000,0.000000,0.000000
n1401,2484.085749,-34.411375,0.000000,0.000000,0.000000,0.000000
n15,0.000000,0.000000,0.000000,0.000000,-1193.256525,2113.204711
n18,2402.870997,-51.992826,-1240.517021,-2092.114710,-1185.671784,2106.850298
n21,2402.666597,-52.607749,-1240.513012,-2092.165656,-1185.017601,2106.460224
n23,2402.536711,-53.209827,-1240.421291,-2092.441485,-1184.438864,2106.053084
n25,2402.267317,-53.867706,-1240.416459,-2092.731860,-1184.077818,2105.645131
n26,2462.226364,-55.512185,0.000000,0.000000,-1213.397934,2158.127451
n2601,2462.324000,-55.214399,-1271.426871,-2145.050157,-1213.679763,2158.286259
n27,2462.048282,-55.732972,0.000000,0.000000,-1213.459217,2158.047959
n36,2398.101118,-54.447473,-1240.381181,-2085.867017,0.000000,0.000000
n40,2395.924909,-54.904160,-1240.109764,-2083.145880,-1180.148036,2105.259470
n44,2391.131409,-56.239388,-1240.293101,-2077.599434,-1176.113688,2103.660313
n54,2393.490986,-64.425192,-1243.818333,-2100.832623,-1185.052492,2105.357786
n57,2385.588491,-74.371050,-1244.550424,-2097.256505,-1181.231703,2101.440051
n61,2368.759935,-95.937274,-1245.837262,-2090.316648,-1172.886069,2092.734706
n67,2421.952561,-107.653870,-1278.211886,-2140.827918,-1200.188253,2140.266326
n6701,2427.978933,-98.335706,-1276.983193,-2142.574564,-1202.208221,2145.053074
n72,2417.992631,-113.549532,-1278.560325,-2139.582277,-1198.891896,2137.957534
n78,2414.553068,-118.301293,-1279.254959,-2138.114939,-1197.954000,2136.165650
n81,2414.739485,-118.915995,-1278.894180,-2137.999977,-1196.383876,2135.666283
n89,2403.707892,-137.177192,-1283.895368,-2141.963547,-1201.939558,2128.972433
n91,2403.630655,-137.275229,-1283.941175,-2141.812989,-1201.812052,2128.937603
n93,2403.450119,-137.368912,-1284.075542,-2141.653751,-1201.907476,2128.938650
n97,2421.449061,-108.293762,-1278.351612,-2140.433179,-1199.750017,2140.084952
n101,2421.046413,-108.817547,-1278.454166,-2140.205975,-1199.446716,2139.918032
n105,2420.331605,-109.365703,-1278.884208,-2139.941115,-1199.797305,2139.848000
n108,2419.579863,-110.234847,-1279.143340,-2140.259184,-1200.072189,2139.494703
n110,2416.193726,-112.029259,0.000000,0.000000,0.000000,0.000000
n135,2402.870997,-51.992826,-1240.517021,-2092.114710,-1185.671784,2106.850298
n149,2461.544745,-0.487461,-1231.130017,-2131.314037,-1230.421039,2131.757564
n1491,2461.544745,-0.487461,-1231.130017,-2131.314037,-1230.421039,2131.757564
n150,2401.507069,-0.475572,-1201.102455,-2079.330768,-1200.410770,2079.763477
n151,2388.046731,-56.992211,-1240.031016,-2073.105959,-1172.899146,2102.843380
n152,2412.346903,-44.141962,-1239.756351,-2104.362659,-1194.007083,2113.635626
n160,2368.759935,-95.937274,-1245.837262,-2090.316648,-1172.886069,2092.734706
n195,2403.407453,-137.264853,-1284.186414,-2141.358890,-1201.956564,2129.051116
n197,2421.449061,-108.293762,-1278.351612,-2140.433179,-1199.750017,2140.084952
n250,2402.215559,-54.422029,-1240.280947,-2092.991430,-1183.399305,2105.251867
n251,2402.215559,-54.422029,-1240.280947,-2092.991430,-1183.399305,2105.251867
n300,2419.579863,-110.234847,-1279.143340,-2140.259184,-1200.072189,2139.494703
n350,2419.579863,-110.234847,-1279.143340,-2140.259184,-1200.072189,2139.494703
n450,2421.594973,-108.268194,-1278.211931,-2139.732650,-1198.874930,2140.159238
n451,2421.594973,-108.268194,-1278.211931,-2139.732650,-1198.874930,2140.159238
n610,275.240123,-7.472793,-141.828784,-237.593490,-133.411339,245.066282
n611,2368.759935,-95.937274,-1245.837262,-2090.316648,-1172.886069,2092.734706
l1,2445.253993,-13.643962,-1234.811562,-2118.270942,-1214.024497,2127.467955
l1_tn,121.785798,-0.782479,121.785798,-0.782479,0.000000,0.000000
l1_tm,121.785798,-0.782479,121.785798,-0.782479,0.000000,0.000000
l1_tpn,121.900885,-0.775452,121.900885,-0.775452,0.000000,0.000000
l2,0.000000,0.000000,-1236.142465,-2113.175309,0.000000,0.000000
l2_tn,-61.704435,-105.380021,-61.704435,-105.380021,0.000000,0.000000
l2_tm,-61.704435,-105.380021,-61.704435,-105.380021,0.000000,0.000000
l2_tpn,-61.733439,-105.438223,-61.733439,-105.438223,0.000000,0.000000
l4,0.000000,0.000000,0.000000,0.000000,-1205.526042,2124.799540
l4_tn,-59.944129,105.864826,-59.944129,105.864826,0.000000,0.000000
l4_tm,-59.944129,105.864826,-59.944129,105.864826,0.000000,0.000000
l4_tpn,-60.015425,105.973026,-60.015425,105.973026,0.000000,0.000000
l5,0.000000,0.000000,0.000000,0.000000,-1195.606745,2121.972768
l5_tn,-59.591739,105.869677,-59.591739,105.869677,0.000000,0.000000
l5_tm,-59.591739,105.869677,-59.591739,105.869677,0.000000,0.000000
l5_tpn,-59.627798,105.924705,-59.627798,105.924705,0.000000,0.000000
l6,0.000000,0.000000,0.000000,0.000000,-1195.249020,2121.767792
l6_tn,-59.432925,105.714118,-59.432925,105.714118,0.000000,0.000000
l6_tm,-59.432925,105.714118,-59.432925,105.714118,0.000000,0.000000
l6_tpn,-59.503196,105.821473,-59.503196,105.821473,0.000000,0.000000
l7,2432.657857,-25.364042,-1236.781131,-2113.149547,-1206.611104,2122.191047
l7_tn,121.331970,-1.317504,121.331970,-1.317504,0.000000,0.000000
l7_tm,121.331970,-1.317504,121.331970,-1.317504,0.000000,0.000000
l7_tpn,121.406264,-1.313298,121.406264,-1.313298,0.000000,0.000000
l9,2423.498292,-33.572073,0.000000,0.000000,0.000000,0.000000
l9_tn,120.715572,-1.773364,120.715572,-1.773364,0.000000,0.000000
l9_tm,120.715572,-1.773364,120.715572,-1.773364,0.000000,0.000000
l9_tpn,120.815461,-1.768094,120.815461,-1.768094,0.000000,0.000000
l10,2482.966910,-35.051929,0.000000,0.000000,0.000000,0.000000
l10_tn,123.849052,-1.801349,123.849052,-1.801349,0.000000,0.000000
l10_tm,123.849052,-1.801349,123.849052,-1.801349,0.000000,0.000000
l10_tpn,123.916896,-1.797759,123.916896,-1.797759,0.000000,0.000000
l11,2482.788009,-35.156986,0.000000,0.000000,0.000000,0.000000
l11_tn,123.667196,-1.854830,123.667196,-1.854830,0.000000,0.000000
l11_tm,123.667196,-1.854830,123.667196,-1.854830,0.000000,0.000000
l11_tpn,123.771254,-1.849371,123.771254,-1.849371,0.000000,0.000000
l12,0.000000,0.000000,-1238.068882,-2109.507604,0.000000,0.000000
l12_tn,-61.808172,-105.212460,-61.808172,-105.212460,0.000000,0.000000
l12_tm,-61.808172,-105.212460,-61.808172,-105.212460,0.000000,0.000000
l12_tpn,-61.829506,-105.255119,-61.829506,-105.255119,0.000000,0.000000
l16,0.000000,0.000000,0.000000,0.000000,-1192.721599,2112.898829
l16_tn,-59.308364,105.273764,-59.308364,105.273764,0.000000,0.000000
l16_tm,-59.308364,105.273764,-59.308364,105.273764,0.000000,0.000000
l16_tpn,-59.377526,105.379222,-59.377526,105.379222,0.000000,0.000000
l17,0.000000,0.000000,0.000000,0.000000,-1193.004693,2113.058213
l17_tn,-59.466170,105.431113,-59.466170,105.431113,0.000000,0.000000
l17_tm,-59.466170,105.431113,-59.466170,105.431113,0.000000,0.000000
l17_tpn,-59.498097,105.479743,-59.498097,105.479743,0.000000,0.000000
l19,2402.163046,-52.394035,0.000000,0.000000,0.000000,0.000000
l19_tn,119.635743,-2.710746,119.635743,-2.710746,0.000000,0.000000
l19_tm,119.635743,-2.710746,119.635743,-2.710746,0.000000,0.000000
l19_tpn,119.751106,-2.705580,119.751106,-2.705580,0.000000,0.000000
l20,2401.702929,-52.654755,0.000000,0.000000,0.000000,0.000000
l20_tn,119.599992,-2.724274,119.599992,-2.724274,0.000000,0.000000
l20_tm,119.599992,-2.724274,119.599992,-2.724274,0.000000,0.000000
l20_tpn,119.728185,-2.718549,119.728185,-2.718549,0.000000,0.000000
l22,0.000000,0.000000,-1240.514792,-2091.301212,0.000000,0.000000
l22_tn,-61.861931,-104.085343,-61.861931,-104.085343,0.000000,0.000000
l22_tm,-61.861931,-104.085343,-61.861931,-104.085343,0.000000,0.000000
l22_tpn,-61.923936,-104.207763,-61.923936,-104.207763,0.000000,0.000000
l24,0.000000,0.000000,0.000000,0.000000,-1183.658421,2105.604972
l24_tn,-58.866228,104.923810,-58.866228,104.923810,0.000000,0.000000
l24_tm,-58.866228,104.923810,-58.866228,104.923810,0.000000,0.000000
l24_tpn,-58.925942,105.015214,-58.925942,105.015214,0.000000,0.000000
l28,2402.106360,-54.179878,-1240.438781,-2092.866642,-1183.976268,2105.461861
l28_tn,119.620019,-2.800240,119.620019,-2.800240,0.000000,0.000000
l28_tm,119.620019,-2.800240,119.620019,-2.800240,0.000000,0.000000
l28_tpn,119.748238,-2.794595,119.748238,-2.794595,0.000000,0.000000
l29,2402.054603,-54.416416,-1240.403155,-2092.974840,-1183.749871,2105.302644
l29_tn,119.633249,-2.811336,119.633249,-2.811336,0.000000,0.000000
l29_tm,119.633249,-2.811336,119.633249,-2.811336,0.000000,0.000000
l29_tpn,119.745614,-2.806399,119.745614,-2.806399,0.000000,0.000000
l30,2402.215559,-54.422029,-1240.280947,-2092.991430,-1183.399305,2105.251867
l30_tn,-58.836189,104.879914,-58.836189,104.879914,0.000000,0.000000
l30_tm,-58.836189,104.879914,-58.836189,104.879914,0.000000,0.000000
l30_tpn,-58.913095,104.997644,-58.913095,104.997644,0.000000,0.000000
l31,0.000000,0.000000,0.000000,0.000000,-1213.068129,2157.934759
l31_tn,-60.459214,107.659628,-60.459214,107.659628,0.000000,0.000000
l31_tm,-60.459214,107.659628,-60.459214,107.659628,0.000000,0.000000
l31_tpn,-60.498581,107.719835,-60.498581,107.719835,0.000000,0.000000
l32,0.000000,0.000000,0.000000,0.000000,-1212.848255,2157.806290
l32_tn,-60.458764,107.669311,-60.458764,107.669311,0.000000,0.000000
l32_tm,-60.458764,107.669311,-60.458764,107.669311,0.000000,0.000000
l32_tpn,-60.487593,107.713405,-60.487593,107.713405,0.000000,0.000000
l33,2461.322785,-56.143217,0.000000,0.000000,0.000000,0.000000
l33_tn,122.572107,-2.900353,122.572107,-2.900353,0.000000,0.000000
l33_tm,122.572107,-2.900353,122.572107,-2.900353,0.000000,0.000000
l33_tpn,122.700355,-2.894739,122.700355,-2.894739,0.000000,0.000000
l34,0.000000,0.000000,0.000000,0.000000,-1193.471124,2113.328136
l34_tn,-59.346621,105.296623,-59.346621,105.296623,0.000000,0.000000
l34_tm,-59.346621,105.296623,-59.346621,105.296623,0.000000,0.000000
l34_tpn,-59.414872,105.400651,-59.414872,105.400651,0.000000,0.000000
l35,2398.602049,-54.157704,-1240.004191,-2086.304168,-1182.484538,2106.144140
l37,2397.676846,-54.687390,0.000000,0.000000,0.000000,0.000000
l37_tn,119.407078,-2.824999,119.407078,-2.824999,0.000000,0.000000
l37_tm,119.407078,-2.824999,119.407078,-2.824999,0.000000,0.000000
l37_tpn,119.527370,-2.819733,119.527370,-2.819733,0.000000,0.000000
l38,0.000000,0.000000,-1240.378413,-2085.450875,0.000000,0.000000
l38_tn,-61.911888,-103.990611,-61.911888,-103.990611,0.000000,0.000000
l38_tm,-61.911888,-103.990611,-61.911888,-103.990611,0.000000,0.000000
l38_tpn,-61.944298,-104.054479,-61.944298,-104.054479,0.000000,0.000000
l39,0.000000,0.000000,-1240.376609,-2085.180374,0.000000,0.000000
l39_tn,-61.920625,-103.994506,-61.920625,-103.994506,0.000000,0.000000
l39_tm,-61.920625,-103.994506,-61.920625,-103.994506,0.000000,0.000000
l39_tpn,-61.944200,-104.040958,-61.944200,-104.040958,0.000000,0.000000
l41,0.000000,0.000000,0.000000,0.000000,-1179.915866,2105.123444
l41_tn,-58.815765,105.038623,-58.815765,105.038623,0.000000,0.000000
l41_tm,-58.815765,105.038623,-58.815765,105.038623,0.000000,0.000000
l41_tpn,-58.845012,105.083473,-58.845012,105.083473,0.000000,0.000000
l42,2393.202832,-55.644713,-1240.264498,-2079.982254,-1177.936860,2104.395030
l42_tn,119.389864,-2.825815,119.389864,-2.825815,0.000000,0.000000
l42_tm,119.389864,-2.825815,119.389864,-2.825815,0.000000,0.000000
l42_tpn,119.436519,-2.823773,119.436519,-2.823773,0.000000,0.000000
l43,0.000000,0.000000,-1240.264158,-2079.162549,0.000000,0.000000
l43_tn,-61.844022,-103.471268,-61.844022,-103.471268,0.000000,0.000000
l43_tm,-61.844022,-103.471268,-61.844022,-103.471268,0.000000,0.000000
l43_tpn,-61.910967,-103.602633,-61.910967,-103.602633,0.000000,0.000000
l45,2390.844369,-56.398569,0.000000,0.000000,0.000000,0.000000
l45_tn,119.255322,-2.864100,119.255322,-2.864100,0.000000,0.000000
l45_tm,119.255322,-2.864100,119.255322,-2.864100,0.000000,0.000000
l45_tpn,119.318815,-2.861343,119.318815,-2.861343,0.000000,0.000000
l46,2390.629090,-56.517947,0.000000,0.000000,0.000000,0.000000
l46_tn,119.249918,-2.869821,119.249918,-2.869821,0.000000,0.000000
l46_tm,119.249918,-2.869821,119.249918,-2.869821,0.000000,0.000000
l46_tpn,119.308064,-2.867299,119.308064,-2.867299,0.000000,0.000000
l47,2388.703154,-56.786453,-1240.265771,-2074.526089,-1173.779283,2102.812605
l48,2388.030020,-57.104877,-1240.151704,-2073.813316,-1173.155586,2102.542962
l49,2388.119069,-56.787975,-1240.085371,-2073.022258,-1173.093326,2102.950974
l50,2388.127190,-56.895667,-1240.001666,-2073.066777,-1172.871448,2102.878679
l50_tn,-58.319037,104.772071,-58.319037,104.772071,0.000000,0.000000
l50_tm,-58.319037,104.772071,-58.319037,104.772071,0.000000,0.000000
l50_tpn,-58.388314,104.878896,-58.388314,104.878896,0.000000,0.000000
l51,2388.046731,-56.992211,-1240.031016,-2073.105959,-1172.899146,2102.843380
l51_tn,119.118956,-2.893516,119.118956,-2.893516,0.000000,0.000000
l51_tm,119.118956,-2.893516,119.118956,-2.893516,0.000000,0.000000
l51_tpn,119.179176,-2.890918,119.179176,-2.890918,0.000000,0.000000
l52,2401.786579,-55.527051,-1242.058845,-2102.508831,-1189.120671,2108.998569
l52_tn,119.604891,-2.867278,119.604891,-2.867278,0.000000,0.000000
l52_tm,119.604891,-2.867278,119.604891,-2.867278,0.000000,0.000000
l52_tpn,119.732241,-2.861743,119.732241,-2.861743,0.000000,0.000000
l53,2396.632905,-61.062873,-1243.160653,-2101.506299,-1186.633936,2106.736467
l53_tn,119.354389,-3.142485,119.354389,-3.142485,0.000000,0.000000
l53_tm,119.354389,-3.142485,119.354389,-3.142485,0.000000,0.000000
l53_tpn,119.475078,-3.137524,119.475078,-3.137524,0.000000,0.000000
l55,2393.372862,-64.476061,-1243.901798,-2100.753836,-1185.105435,2105.369262
l55_tn,119.378926,-3.267155,119.378926,-3.267155,0.000000,0.000000
l55_tm,119.378926,-3.267155,119.378926,-3.267155,0.000000,0.000000
l55_tpn,119.444853,-3.264514,119.444853,-3.264514,0.000000,0.000000
l56,2393.343759,-64.419150,-1243.950355,-2100.622954,-1185.127722,2105.419559
l56_tn,-62.095496,-104.757423,-62.095496,-104.757423,0.000000,0.000000
l56_tm,-62.095496,-104.757423,-62.095496,-104.757423,0.000000,0.000000
l56_tpn,-62.122861,-104.811607,-62.122861,-104.811607,0.000000,0.000000
l58,0.000000,0.000000,-1244.548029,-2096.838355,0.000000,0.000000
l58_tn,-62.118239,-104.554832,-62.118239,-104.554832,0.000000,0.000000
l58_tm,-62.118239,-104.554832,-62.118239,-104.554832,0.000000,0.000000
l58_tpn,-62.152617,-104.622732,-62.152617,-104.622732,0.000000,0.000000
l59,0.000000,0.000000,-1244.546829,-2096.629267,0.000000,0.000000
l59_tn,-62.129594,-104.566932,-62.129594,-104.566932,0.000000,0.000000
l59_tm,-62.129594,-104.566932,-62.129594,-104.566932,0.000000,0.000000
l59_tpn,-62.152549,-104.612268,-62.152549,-104.612268,0.000000,0.000000
l60,2368.759935,-95.937274,-1245.837262,-2090.316648,-1172.886069,2092.734706
l60_tn,118.170017,-4.835400,118.170017,-4.835400,0.000000,0.000000
l60_tm,118.170017,-4.835400,118.170017,-4.835400,0.000000,0.000000
l60_tpn,118.215834,-4.834185,118.215834,-4.834185,0.000000,0.000000
l62,2367.372031,-95.037597,-1244.821983,-2089.405122,-1172.205952,2090.683639
l62_tn,-58.305015,104.193342,-58.305015,104.193342,0.000000,0.000000
l62_tm,-58.305015,104.193342,-58.305015,104.193342,0.000000,0.000000
l62_tpn,-58.355531,104.270856,-58.355531,104.270856,0.000000,0.000000
l63,2366.402552,-94.406837,-1244.108359,-2088.764438,-1171.801004,2089.402559
l63_tn,117.877726,-4.801035,117.877726,-4.801035,0.000000,0.000000
l63_tm,117.877726,-4.801035,117.877726,-4.801035,0.000000,0.000000
l63_tpn,117.966597,-4.798662,117.966597,-4.798662,0.000000,0.000000
l64,2364.797698,-93.185539,-1242.679737,-2087.490709,-1170.991575,2086.835921
l64_tn,-61.889989,-103.596639,-61.889989,-103.596639,0.000000,0.000000
l64_tm,-61.889989,-103.596639,-61.889989,-103.596639,0.000000,0.000000
l64_tpn,-61.984880,-103.782936,-61.984880,-103.782936,0.000000,0.000000
l65,2362.832085,-91.697022,-1241.381100,-2086.572149,-1170.025557,2083.724801
l66,2362.825114,-91.700396,-1241.391021,-2086.581073,-1169.781886,2083.200002
l66_tn,-57.942993,103.566328,-57.942993,103.566328,0.000000,0.000000
l66_tm,-57.942993,103.566328,-57.942993,103.566328,0.000000,0.000000
l66_tpn,-58.057855,103.742607,-58.057855,103.742607,0.000000,0.000000
l68,2421.080345,-108.119073,0.000000,0.000000,0.000000,0.000000
l68_tn,120.771548,-5.444377,120.771548,-5.444377,0.000000,0.000000
l68_tm,120.771548,-5.444377,120.771548,-5.444377,0.000000,0.000000
l68_tpn,120.826819,-5.443142,120.826819,-5.443142,0.000000,0.000000
l69,2420.083280,-108.652073,0.000000,0.000000,0.000000,0.000000
l69_tn,120.506098,-5.513790,120.506098,-5.513790,0.000000,0.000000
l69_tm,120.506098,-5.513790,120.506098,-5.513790,0.000000,0.000000
l69_tpn,120.642362,-5.510836,120.642362,-5.510836,0.000000,0.000000
l70,2419.374737,-109.029838,0.000000,0.000000,0.000000,0.000000
l70_tn,120.678009,-5.489956,120.678009,-5.489956,0.000000,0.000000
l70_tm,120.678009,-5.489956,120.678009,-5.489956,0.000000,0.000000
l70_tpn,120.741687,-5.488559,120.741687,-5.488559,0.000000,0.000000
l71,2418.977328,-109.242991,0.000000,0.000000,0.000000,0.000000
l71_tn,120.450566,-5.543178,120.450566,-5.543178,0.000000,0.000000
l71_tm,120.450566,-5.543178,120.450566,-5.543178,0.000000,0.000000
l71_tpn,120.587203,-5.540252,120.587203,-5.540252,0.000000,0.000000
l73,0.000000,0.000000,0.000000,0.000000,-1197.706526,2137.274460
l73_tn,-59.543990,106.470033,-59.543990,106.470033,0.000000,0.000000
l73_tm,-59.543990,106.470033,-59.543990,106.470033,0.000000,0.000000
l73_tpn,-59.625166,106.594661,-59.625166,106.594661,0.000000,0.000000
l74,0.000000,0.000000,0.000000,0.000000,-1196.700927,2136.694847
l74_tn,-59.492516,106.438934,-59.492516,106.438934,0.000000,0.000000
l74_tm,-59.492516,106.438934,-59.492516,106.438934,0.000000,0.000000
l74_tpn,-59.575060,106.565729,-59.575060,106.565729,0.000000,0.000000
l75,0.000000,0.000000,0.000000,0.000000,-1196.126266,2136.363579
l75_tn,-59.491699,106.465181,-59.491699,106.465181,0.000000,0.000000
l75_tm,-59.491699,106.465181,-59.491699,106.465181,0.000000,0.000000
l75_tpn,-59.546331,106.549121,-59.546331,106.549121,0.000000,0.000000
l76,2414.876183,-117.813327,-1279.089644,-2138.663831,-1198.544300,2136.376188
l77,2414.606246,-118.176455,-1279.251692,-2138.147494,-1198.085211,2136.237197
l77_tn,-63.812139,-106.454132,-63.812139,-106.454132,0.000000,0.000000
l77_tm,-63.812139,-106.454132,-63.812139,-106.454132,0.000000,0.000000
l77_tpn,-63.856898,-106.541684,-63.856898,-106.541684,0.000000,0.000000
l79,2414.405357,-118.474903,-1279.305864,-2138.177505,-1198.012156,2136.081544
l79_tn,120.227655,-6.002611,120.227655,-6.002611,0.000000,0.000000
l79_tm,120.227655,-6.002611,120.227655,-6.002611,0.000000,0.000000
l79_tpn,120.358900,-6.000312,120.358900,-6.000312,0.000000,0.000000
l80,2414.612305,-118.527767,-1279.163010,-2137.828220,-1197.207973,2136.003357
l80_tn,-63.809124,-106.440995,-63.809124,-106.440995,0.000000,0.000000
l80_tm,-63.809124,-106.440995,-63.809124,-106.440995,0.000000,0.000000
l80_tpn,-63.852464,-106.525763,-63.852464,-106.525763,0.000000,0.000000
l82,2414.633460,-119.111967,-1278.900923,-2138.074921,-1196.323136,2135.551267
l82_tn,120.249749,-6.034169,120.249749,-6.034169,0.000000,0.000000
l82_tm,120.249749,-6.034169,120.249749,-6.034169,0.000000,0.000000
l82_tpn,120.370224,-6.032089,120.370224,-6.032089,0.000000,0.000000
l83,2414.691638,-119.115045,-1278.851076,-2138.080348,-1196.197743,2135.529704
l83_tn,-59.623568,106.549954,-59.623568,106.549954,0.000000,0.000000
l83_tm,-59.623568,106.549954,-59.623568,106.549954,0.000000,0.000000
l83_tpn,-59.657035,106.601308,-59.657035,106.601308,0.000000,0.000000
l84,0.000000,0.000000,0.000000,0.000000,-1194.926987,2134.821065
l84_tn,-59.554356,106.505606,-59.554356,106.505606,0.000000,0.000000
l84_tm,-59.554356,106.505606,-59.554356,106.505606,0.000000,0.000000
l84_tpn,-59.593638,106.565924,-59.593638,106.565924,0.000000,0.000000
l85,0.000000,0.000000,0.000000,0.000000,-1194.245511,2134.427954
l85_tn,-59.387656,106.352608,-59.387656,106.352608,0.000000,0.000000
l85_tm,-59.387656,106.352608,-59.387656,106.352608,0.000000,0.000000
l85_tpn,-59.452677,106.452575,-59.452677,106.452575,0.000000,0.000000
l86,2408.108561,-129.478736,-1281.961422,-2140.800906,-1200.727674,2132.303907
l86_tn,-63.994375,-106.764633,-63.994375,-106.764633,0.000000,0.000000
l86_tm,-63.994375,-106.764633,-63.994375,-106.764633,0.000000,0.000000
l86_tpn,-64.020676,-106.816083,-64.020676,-106.816083,0.000000,0.000000
l87,2403.841625,-137.151239,-1283.737004,-2142.413617,-1202.050197,2128.913572
l87_tn,-64.019512,-106.634829,-64.019512,-106.634829,0.000000,0.000000
l87_tm,-64.019512,-106.634829,-64.019512,-106.634829,0.000000,0.000000
l87_tpn,-64.080681,-106.754279,-64.080681,-106.754279,0.000000,0.000000
l88,2399.711525,-140.776079,0.000000,0.000000,0.000000,0.000000
l88_tn,119.491941,-7.112570,119.491941,-7.112570,0.000000,0.000000
l88_tm,119.491941,-7.112570,119.491941,-7.112570,0.000000,0.000000
l88_tpn,119.625487,-7.111509,119.625487,-7.111509,0.000000,0.000000
l90,0.000000,0.000000,-1283.894380,-2141.583247,0.000000,0.000000
l90_tn,-64.031981,-106.602560,-64.031981,-106.602560,0.000000,0.000000
l90_tm,-64.031981,-106.602560,-64.031981,-106.602560,0.000000,0.000000
l90_tpn,-64.088491,-106.712852,-64.088491,-106.712852,0.000000,0.000000
l92,0.000000,0.000000,0.000000,0.000000,-1201.380960,2128.691047
l92_tn,-59.748271,106.074834,-59.748271,106.074834,0.000000,0.000000
l92_tm,-59.748271,106.074834,-59.748271,106.074834,0.000000,0.000000
l92_tpn,-59.808600,106.166840,-59.808600,106.166840,0.000000,0.000000
l94,2403.052385,-137.576116,0.000000,0.000000,0.000000,0.000000
l94_tn,119.696606,-6.953037,119.696606,-6.953037,0.000000,0.000000
l94_tm,119.696606,-6.953037,119.696606,-6.953037,0.000000,0.000000
l94_tpn,119.792086,-6.952142,119.792086,-6.952142,0.000000,0.000000
l95,2403.407453,-137.264853,-1284.186414,-2141.358890,-1201.956564,2129.051116
l95_tn,-64.102431,-106.786671,-64.102431,-106.786671,0.000000,0.000000
l95_tm,-64.102431,-106.786671,-64.102431,-106.786671,0.000000,0.000000
l95_tpn,-64.131731,-106.843896,-64.131731,-106.843896,0.000000,0.000000
l96,0.000000,0.000000,-1284.184653,-2141.187684,0.000000,0.000000
l96_tn,-64.107321,-106.787850,-64.107321,-106.787850,0.000000,0.000000
l96_tm,-64.107321,-106.787850,-64.107321,-106.787850,0.000000,0.000000
l96_tpn,-64.131638,-106.835339,-64.131638,-106.835339,0.000000,0.000000
l98,2421.338123,-108.421481,-1278.392500,-2140.248890,-1199.601587,2140.069051
l98_tn,120.615207,-5.501383,120.615207,-5.501383,0.000000,0.000000
l98_tm,120.615207,-5.501383,120.615207,-5.501383,0.000000,0.000000
l98_tpn,120.704831,-5.499427,120.704831,-5.499427,0.000000,0.000000
l99,2421.476508,-108.256200,-1278.350136,-2139.726385,-1199.173080,2140.208195
l99_tn,-63.748710,-106.496484,-63.748710,-106.496484,0.000000,0.000000
l99_tm,-63.748710,-106.496484,-63.748710,-106.496484,0.000000,0.000000
l99_tpn,-63.812028,-106.620525,-63.812028,-106.620525,0.000000,0.000000
l100,2421.594973,-108.268194,-1278.211931,-2139.732650,-1198.874930,2140.159238
l100_tn,-59.626799,106.651808,-59.626799,106.651808,0.000000,0.000000
l100_tm,-59.626799,106.651808,-59.626799,106.651808,0.000000,0.000000
l100_tpn,-59.683223,106.738460,-59.683223,106.738460,0.000000,0.000000
l102,0.000000,0.000000,0.000000,0.000000,-1198.636455,2139.449298
l102_tn,-59.746811,106.748098,-59.746811,106.748098,0.000000,0.000000
l102_tm,-59.746811,106.748098,-59.746811,106.748098,0.000000,0.000000
l102_tpn,-59.778669,106.796972,-59.778669,106.796972,0.000000,0.000000
l103,0.000000,0.000000,0.000000,0.000000,-1197.701902,2138.910467
l103_tn,-59.552487,106.565033,-59.552487,106.565033,0.000000,0.000000
l103_tm,-59.552487,106.565033,-59.552487,106.565033,0.000000,0.000000
l103_tpn,-59.624845,106.676199,-59.624845,106.676199,0.000000,0.000000
l104,0.000000,0.000000,0.000000,0.000000,-1196.695643,2138.330138
l104_tn,-59.514042,106.554017,-59.514042,106.554017,0.000000,0.000000
l104_tm,-59.514042,106.554017,-59.514042,106.554017,0.000000,0.000000
l104_tpn,-59.574663,106.647198,-59.574663,106.647198,0.000000,0.000000
l106,0.000000,0.000000,-1278.883090,-2139.182042,0.000000,0.000000
l106_tn,-63.775832,-106.470539,-63.775832,-106.470539,0.000000,0.000000
l106_tm,-63.775832,-106.470539,-63.775832,-106.470539,0.000000,0.000000
l106_tpn,-63.838575,-106.593364,-63.838575,-106.593364,0.000000,0.000000
l107,0.000000,0.000000,-1278.881572,-2138.212189,0.000000,0.000000
l107_tn,-63.786023,-106.442368,-63.786023,-106.442368,0.000000,0.000000
l107_tm,-63.786023,-106.442368,-63.786023,-106.442368,0.000000,0.000000
l107_tpn,-63.838454,-106.544962,-63.838454,-106.544962,0.000000,0.000000
l109,2417.288083,-111.450685,0.000000,0.000000,0.000000,0.000000
l109_tn,120.371948,-5.652932,120.371948,-5.652932,0.000000,0.000000
l109_tm,120.371948,-5.652932,120.371948,-5.652932,0.000000,0.000000
l109_tpn,120.502889,-5.650250,120.502889,-5.650250,0.000000,0.000000
l111,2415.771384,-112.251020,0.000000,0.000000,0.000000,0.000000
l111_tn,120.495606,-5.650608,120.495606,-5.650608,0.000000,0.000000
l111_tm,120.495606,-5.650608,120.495606,-5.650608,0.000000,0.000000
l111_tpn,120.561790,-5.649249,120.561790,-5.649249,0.000000,0.000000
l112,2415.829558,-112.222122,0.000000,0.000000,0.000000,0.000000
l112_tn,120.507145,-5.648994,120.507145,-5.648994,0.000000,0.000000
l112_tm,120.507145,-5.648994,120.507145,-5.648994,0.000000,0.000000
l112_tpn,120.564684,-5.647811,120.564684,-5.647811,0.000000,0.000000
l113,2414.685700,-112.829644,0.000000,0.000000,0.000000,0.000000
l113_tn,120.285335,-5.720673,120.285335,-5.720673,0.000000,0.000000
l113_tm,120.285335,-5.720673,120.285335,-5.720673,0.000000,0.000000
l113_tpn,120.373002,-5.718930,120.373002,-5.718930,0.000000,0.000000
l114,2414.447048,-112.954860,0.000000,0.000000,0.000000,0.000000
l114_tn,120.441619,-5.685448,120.441619,-5.685448,0.000000,0.000000
l114_tm,120.441619,-5.685448,120.441619,-5.685448,0.000000,0.000000
l114_tpn,120.495669,-5.684355,120.495669,-5.684355,0.000000,0.000000
c83,2414.691638,-119.115045,-1278.851076,-2138.080348,-1196.197743,2135.529704
c88,2399.711525,-140.776079,0.000000,0.000000,0.000000,0.000000
c90,0.000000,0.000000,-1283.894380,-2141.583247,0.000000,0.000000
c92,0.000000,0.000000,0.000000,0.000000,-1201.380960,2128.691047
l1_tn_loadshape,121.785798,-0.782479,121.785798,-0.782479,0.000000,0.000000
l2_tn_loadshape,-61.704435,-105.380021,-61.704435,-105.380021,0.000000,0.000000
l4_tn_loadshape,-59.944129,105.864826,-59.944129,105.864826,0.000000,0.000000
l5_tn_loadshape,-59.591739,105.869677,-59.591739,105.869677,0.000000,0.000000
l6_tn_loadshape,-59.432925,105.714118,-59.432925,105.714118,0.000000,0.000000
l7_tn_loadshape,121.331970,-1.317504,121.331970,-1.317504,0.000000,0.000000
l9_tn_loadshape,120.715572,-1.773364,120.715572,-1.773364,0.000000,0.000000
l10_tn_loadshape,123.849052,-1.801349,123.849052,-1.801349,0.000000,0.000000
l11_tn_loadshape,123.667196,-1.854830,123.667196,-1.854830,0.000000,0.000000
l12_tn_loadshape,-61.808172,-105.212460,-61.808172,-105.212460,0.000000,0.000000
l16_tn_loadshape,-59.308364,105.273764,-59.308364,105.273764,0.000000,0.000000
l17_tn_loadshape,-59.466170,105.431113,-59.466170,105.431113,0.000000,0.000000
l19_tn_loadshape,119.635743,-2.710746,119.635743,-2.710746,0.000000,0.000000
l20_tn_loadshape,119.599992,-2.724274,119.599992,-2.724274,0.000000,0.000000
l22_tn_loadshape,-61.861931,-104.085343,-61.861931,-104.085343,0.000000,0.000000
l24_tn_loadshape,-58.866228,104.923810,-58.866228,104.923810,0.000000,0.000000
l28_tn_loadshape,119.620019,-2.800240,119.620019,-2.800240,0.000000,0.000000
l29_tn_loadshape,119.633249,-2.811336,119.633249,-2.811336,0.000000,0.000000
l30_tn_loadshape,-58.836189,104.879914,-58.836189,104.879914,0.000000,0.000000
l31_tn_loadshape,-60.459214,107.659628,-60.459214,107.659628,0.000000,0.000000
l32_tn_loadshape,-60.458764,107.669311,-60.458764,107.669311,0.000000,0.000000
l33_tn_loadshape,122.572107,-2.900353,122.572107,-2.900353,0.000000,0.000000
l34_tn_loadshape,-59.346621,105.296623,-59.346621,105.296623,0.000000,0.000000
l37_tn_loadshape,119.407078,-2.824999,119.407078,-2.824999,0.000000,0.000000
l38_tn_loadshape,-61.911888,-103.990611,-61.911888,-103.990611,0.000000,0.000000
l39_tn_loadshape,-61.920625,-103.994506,-61.920625,-103.994506,0.000000,0.000000
l41_tn_loadshape,-58.815765,105.038623,-58.815765,105.038623,0.000000,0.000000
l42_tn_loadshape,119.389864,-2.825815,119.389864,-2.825815,0.000000,0.000000
l43_tn_loadshape,-61.844022,-103.471268,-61.844022,-103.471268,0.000000,0.000000
l45_tn_loadshape,119.255322,-2.864100,119.255322,-2.864100,0.000000,0.000000
l46_tn_loadshape,119.249918,-2.869821,119.249918,-2.869821,0.000000,0.000000
l50_tn_loadshape,-58.319037,104.772071,-58.319037,104.772071,0.000000,0.000000
l51_tn_loadshape,119.118956,-2.893516,119.118956,-2.893516,0.000000,0.000000
l52_tn_loadshape,119.604891,-2.867278,119.604891,-2.867278,0.000000,0.000000
l53_tn_loadshape,119.354389,-3.142485,119.354389,-3.142485,0.000000,0.000000
l55_tn_loadshape,119.378926,-3.267155,119.378926,-3.267155,0.000000,0.000000
l56_tn_loadshape,-62.095496,-104.757423,-62.095496,-104.757423,0.000000,0.000000
l58_tn_loadshape,-62.118239,-104.554832,-62.118239,-104.554832,0.000000,0.000000
l59_tn_loadshape,-62.129594,-104.566932,-62.129594,-104.566932,0.000000,0.000000
l60_tn_loadshape,118.170017,-4.835400,118.170017,-4.835400,0.000000,0.000000
l62_tn_loadshape,-58.305015,104.193342,-58.305015,104.193342,0.000000,0.000000
l63_tn_loadshape,117.877726,-4.801035,117.877726,-4.801035,0.000000,0.000000
l64_tn_loadshape,-61.889989,-103.596639,-61.889989,-103.596639,0.000000,0.000000
l66_tn_loadshape,-57.942993,103.566328,-57.942993,103.566328,0.000000,0.000000
l68_tn_loadshape,120.771548,-5.444377,120.771548,-5.444377,0.000000,0.000000
l69_tn_loadshape,120.506098,-5.513790,120.506098,-5.513790,0.000000,0.000000
l70_tn_loadshape,120.678009,-5.489956,120.678009,-5.489956,0.000000,0.000000
l71_tn_loadshape,120.450566,-5.543178,120.450566,-5.543178,0.000000,0.000000
l73_tn_loadshape,-59.543990,106.470033,-59.543990,106.470033,0.000000,0.000000
l74_tn_loadshape,-59.492516,106.438934,-59.492516,106.438934,0.000000,0.000000
l75_tn_loadshape,-59.491699,106.465181,-59.491699,106.465181,0.000000,0.000000
l77_tn_loadshape,-63.812139,-106.454132,-63.812139,-106.454132,0.000000,0.000000
l79_tn_loadshape,120.227655,-6.002611,120.227655,-6.002611,0.000000,0.000000
l80_tn_loadshape,-63.809124,-106.440995,-63.809124,-106.440995,0.000000,0.000000
l82_tn_loadshape,120.249749,-6.034169,120.249749,-6.034169,0.000000,0.000000
l83_tn_loadshape,-59.623568,106.549954,-59.623568,106.549954,0.000000,0.000000
l84_tn_loadshape,-59.554356,106.505606,-59.554356,106.505606,0.000000,0.000000
l85_tn_loadshape,-59.387656,106.352608,-59.387656,106.352608,0.000000,0.000000
l86_tn_loadshape,-63.994375,-106.764633,-63.994375,-106.764633,0.000000,0.000000
l87_tn_loadshape,-64.019512,-106.634829,-64.019512,-106.634829,0.000000,0.000000
l88_tn_loadshape,119.491941,-7.112570,119.491941,-7.112570,0.000000,0.000000
l90_tn_loadshape,-64.031981,-106.602560,-64.031981,-106.602560,0.000000,0.000000
l92_tn_loadshape,-59.748271,106.074834,-59.748271,106.074834,0.000000,0.000000
l94_tn_loadshape,119.696606,-6.953037,119.696606,-6.953037,0.000000,0.000000
l95_tn_loadshape,-64.102431,-106.786671,-64.102431,-106.786671,0.000000,0.000000
l96_tn_loadshape,-64.107321,-106.787850,-64.107321,-106.787850,0.000000,0.000000
l98_tn_loadshape,120.615207,-5.501383,120.615207,-5.501383,0.000000,0.000000
l99_tn_loadshape,-63.748710,-106.496484,-63.748710,-106.496484,0.000000,0.000000
l100_tn_loadshape,-59.626799,106.651808,-59.626799,106.651808,0.000000,0.000000
l102_tn_loadshape,-59.746811,106.748098,-59.746811,106.748098,0.000000,0.000000
l103_tn_loadshape,-59.552487,106.565033,-59.552487,106.565033,0.000000,0.000000
l104_tn_loadshape,-59.514042,106.554017,-59.514042,106.554017,0.000000,0.000000
l106_tn_loadshape,-63.775832,-106.470539,-63.775832,-106.470539,0.000000,0.000000
l107_tn_loadshape,-63.786023,-106.442368,-63.786023,-106.442368,0.000000,0.000000
l109_tn_loadshape,120.371948,-5.652932,120.371948,-5.652932,0.000000,0.000000
l111_tn_loadshape,120.495606,-5.650608,120.495606,-5.650608,0.000000,0.000000
l112_tn_loadshape,120.507145,-5.648994,120.507145,-5.648994,0.000000,0.000000
l113_tn_loadshape,120.285335,-5.720673,120.285335,-5.720673,0.000000,0.000000
l114_tn_loadshape,120.441619,-5.685448,120.441619,-5.685448,0.000000,0.000000
EV6,2414.447048,-112.954860,0.000000,0.000000,0.000000,0.000000
EV5,0.000000,0.000000,-1278.881572,-2138.212189,0.000000,0.000000
EV4,0.000000,0.000000,0.000000,0.000000,-1201.380960,2128.691047
EV3,2399.711525,-140.776079,0.000000,0.000000,0.000000,0.000000
EV2,0.000000,0.000000,-1236.142465,-2113.175309,0.000000,0.000000
EV1,0.000000,0.000000,0.000000,0.000000,-1195.606745,2121.972768
